examples/grid_models/railbelt_synthetic.raw
 0,    100.00, 33, 0, 0, 60.00       / Synthetic RailBelt - ACEP Current System
Based on ACEP Decarbonization Study (2024) Current System
Generated 2026-02-10 13:13
    1,'Bus 1       ', 115.0000,2,   1,   1,   1,1.00000,   0.0000
    2,'Bus 2       ',  69.0000,1,   1,   1,   1,1.00000,   0.0000
    3,'Bus 3       ', 115.0000,1,   1,   1,   1,1.00000,   0.0000
    4,'Bus 4       ', 115.0000,1,   1,   1,   1,1.00000,   0.0000
    5,'Bus 5       ', 230.0000,1,   1,   1,   1,1.00000,   0.0000
    6,'Bus 6       ', 230.0000,1,   1,   1,   1,1.00000,   0.0000
    7,'Bus 7       ', 138.0000,2,   1,   1,   1,1.00000,   0.0000
    8,'Bus 8       ', 115.0000,2,   1,   1,   1,1.00000,   0.0000
    9,'Bus 9       ', 115.0000,2,   1,   1,   1,1.00000,   0.0000
   10,'Bus 10      ', 115.0000,1,   1,   1,   1,1.00000,   0.0000
   11,'Bus 11      ', 115.0000,1,   1,   1,   1,1.00000,   0.0000
   12,'Bus 12      ',  69.0000,1,   1,   1,   1,1.00000,   0.0000
   13,'Bus 13      ', 115.0000,1,   1,   1,   1,1.00000,   0.0000
   14,'Bus 14      ', 115.0000,1,   1,   1,   1,1.00000,   0.0000
   15,'Bus 15      ', 115.0000,1,   1,   1,   1,1.00000,   0.0000
   16,'Bus 16      ', 115.0000,1,   1,   1,   1,1.00000,   0.0000
   17,'Bus 17      ', 115.0000,1,   1,   1,   1,1.00000,   0.0000
   18,'Bus 18      ',  69.0000,1,   1,   1,   1,1.00000,   0.0000
   19,'Bus 19      ', 138.0000,1,   1,   1,   1,1.00000,   0.0000
   20,'Bus 20      ', 230.0000,1,   1,   1,   1,1.00000,   0.0000
   21,'Bus 21      ', 230.0000,2,   1,   1,   1,1.00000,   0.0000
   22,'Bus 22      ', 230.0000,1,   1,   1,   1,1.00000,   0.0000
   23,'Bus 23      ', 230.0000,1,   1,   1,   1,1.00000,   0.0000
   24,'Bus 24      ', 115.0000,1,   1,   1,   1,1.00000,   0.0000
   25,'Bus 25      ', 115.0000,2,   1,   1,   1,1.00000,   0.0000
   26,'Bus 26      ', 115.0000,3,   1,   1,   1,1.00000,   0.0000
   27,'Bus 27      ', 138.0000,1,   1,   1,   1,1.00000,   0.0000
   28,'Bus 28      ', 230.0000,1,   1,   1,   1,1.00000,   0.0000
   29,'Bus 29      ', 115.0000,1,   1,   1,   1,1.00000,   0.0000
   30,'Bus 30      ', 138.0000,1,   1,   1,   1,1.00000,   0.0000
   31,'Bus 31      ', 230.0000,1,   1,   1,   1,1.00000,   0.0000
   32,'Bus 32      ', 230.0000,1,   1,   1,   1,1.00000,   0.0000
   33,'Bus 33      ', 115.0000,1,   1,   1,   1,1.00000,   0.0000
   34,'Bus 34      ',  69.0000,1,   1,   1,   1,1.00000,   0.0000
   35,'Bus 35      ', 115.0000,1,   1,   1,   1,1.00000,   0.0000
   36,'Bus 36      ',  69.0000,1,   1,   1,   1,1.00000,   0.0000
   37,'Bus 37      ', 115.0000,1,   1,   1,   1,1.00000,   0.0000
   38,'Bus 38      ',  69.0000,2,   1,   1,   1,1.00000,   0.0000
   39,'Bus 39      ', 115.0000,1,   1,   1,   1,1.00000,   0.0000
   40,'Bus 40      ', 238.0000,2,   1,   1,   1,1.00000,   0.0000
   41,'Bus 41      ', 115.0000,2,   1,   1,   1,1.00000,   0.0000
   42,'Bus 42      ', 115.0000,1,   1,   1,   1,1.00000,   0.0000
   43,'Bus 43      ',  69.0000,1,   1,   1,   1,1.00000,   0.0000
   44,'Bus 44      ', 138.0000,1,   1,   1,   1,1.00000,   0.0000
   45,'Bus 45      ', 115.0000,1,   1,   1,   1,1.00000,   0.0000
   46,'Bus 46      ',  69.0000,1,   1,   1,   1,1.00000,   0.0000
   47,'Bus 47      ', 115.0000,1,   1,   1,   1,1.00000,   0.0000
   48,'Bus 48      ', 115.0000,1,   1,   1,   1,1.00000,   0.0000
   49,'Bus 49      ', 238.0000,2,   1,   1,   1,1.00000,   0.0000
   50,'Bus 50      ',  69.0000,1,   1,   1,   1,1.00000,   0.0000
   51,'Bus 51      ', 138.0000,2,   1,   1,   1,1.00000,   0.0000
   52,'Bus 52      ',  69.0000,1,   1,   1,   1,1.00000,   0.0000
   53,'Bus 53      ', 138.0000,1,   1,   1,   1,1.00000,   0.0000
   54,'Bus 54      ',  69.0000,1,   1,   1,   1,1.00000,   0.0000
   55,'Bus 55      ', 138.0000,2,   1,   1,   1,1.00000,   0.0000
   56,'Bus 56      ',  69.0000,1,   1,   1,   1,1.00000,   0.0000
   57,'Bus 57      ', 138.0000,1,   1,   1,   1,1.00000,   0.0000
   58,'Bus 58      ', 138.0000,1,   1,   1,   1,1.00000,   0.0000
   59,'Bus 59      ', 115.0000,1,   1,   1,   1,1.00000,   0.0000
   60,'Bus 60      ', 115.0000,1,   1,   1,   1,1.00000,   0.0000
   61,'Bus 61      ', 115.0000,1,   1,   1,   1,1.00000,   0.0000
   62,'Bus 62      ', 115.0000,1,   1,   1,   1,1.00000,   0.0000
   63,'Bus 63      ', 138.0000,1,   1,   1,   1,1.00000,   0.0000
   64,'Bus 64      ', 138.0000,1,   1,   1,   1,1.00000,   0.0000
   65,'Bus 65      ', 138.0000,1,   1,   1,   1,1.00000,   0.0000
   66,'Bus 66      ', 138.0000,2,   1,   1,   1,1.00000,   0.0000
   67,'Bus 67      ', 138.0000,1,   1,   1,   1,1.00000,   0.0000
   68,'Bus 68      ', 138.0000,1,   1,   1,   1,1.00000,   0.0000
   69,'Bus 69      ', 138.0000,1,   1,   1,   1,1.00000,   0.0000
   70,'Bus 70      ', 138.0000,1,   1,   1,   1,1.00000,   0.0000
   71,'Bus 71      ', 138.0000,1,   1,   1,   1,1.00000,   0.0000
   72,'Bus 72      ', 138.0000,1,   1,   1,   1,1.00000,   0.0000
   73,'Bus 73      ',  69.0000,1,   1,   1,   1,1.00000,   0.0000
   74,'Bus 74      ', 238.0000,1,   1,   1,   1,1.00000,   0.0000
0 / END OF BUS DATA, BEGIN LOAD DATA
    1,'1 ',1,   1,   1,      0.386,      0.187,     0.000,     0.000,     0.000,    -0.000,   1,1
    2,'1 ',1,   1,   1,     15.523,      9.620,     0.000,     0.000,     0.000,    -0.000,   1,1
    3,'1 ',1,   1,   1,     17.774,      5.780,     0.000,     0.000,     0.000,    -0.000,   1,1
    4,'1 ',1,   1,   1,     11.152,      5.410,     0.000,     0.000,     0.000,    -0.000,   1,1
    5,'1 ',1,   1,   1,      0.299,      0.183,     0.000,     0.000,     0.000,    -0.000,   1,1
    6,'1 ',1,   1,   1,      0.601,      0.291,     0.000,     0.000,     0.000,    -0.000,   1,1
    7,'1 ',1,   1,   1,      0.178,      0.077,     0.000,     0.000,     0.000,    -0.000,   1,1
    8,'1 ',1,   1,   1,     39.707,     19.231,     0.000,     0.000,     0.000,    -0.000,   1,1
    9,'1 ',1,   1,   1,      0.829,      0.487,     0.000,     0.000,     0.000,    -0.000,   1,1
   16,'1 ',1,   1,   1,      0.249,      0.121,     0.000,     0.000,     0.000,    -0.000,   1,1
   19,'1 ',1,   1,   1,      2.238,      1.182,     0.000,     0.000,     0.000,    -0.000,   1,1
   20,'1 ',1,   1,   1,      0.035,      0.017,     0.000,     0.000,     0.000,    -0.000,   1,1
   21,'1 ',1,   1,   1,      0.520,      0.318,     0.000,     0.000,     0.000,    -0.000,   1,1
   22,'1 ',1,   1,   1,      0.215,      0.132,     0.000,     0.000,     0.000,    -0.000,   1,1
   23,'1 ',1,   1,   1,      2.546,      1.365,     0.000,     0.000,     0.000,    -0.000,   1,1
   24,'1 ',1,   1,   1,      0.183,      0.112,     0.000,     0.000,     0.000,    -0.000,   1,1
   25,'1 ',1,   1,   1,    130.439,     54.664,     0.000,     0.000,     0.000,    -0.000,   1,1
   26,'1 ',1,   1,   1,    181.748,     88.025,     0.000,     0.000,     0.000,    -0.000,   1,1
   29,'1 ',1,   1,   1,     30.374,      8.833,     0.000,     0.000,     0.000,    -0.000,   1,1
   33,'1 ',1,   1,   1,     30.717,     13.554,     0.000,     0.000,     0.000,    -0.000,   1,1
   35,'1 ',1,   1,   1,      1.264,      0.602,     0.000,     0.000,     0.000,    -0.000,   1,1
   37,'1 ',1,   1,   1,      0.036,      0.017,     0.000,     0.000,     0.000,    -0.000,   1,1
   39,'1 ',1,   1,   1,      0.434,      0.189,     0.000,     0.000,     0.000,    -0.000,   1,1
   40,'1 ',1,   1,   1,      1.114,      0.476,     0.000,     0.000,     0.000,    -0.000,   1,1
   41,'1 ',1,   1,   1,      2.755,      1.600,     0.000,     0.000,     0.000,    -0.000,   1,1
   42,'1 ',1,   1,   1,    101.147,     53.210,     0.000,     0.000,     0.000,    -0.000,   1,1
   43,'1 ',1,   1,   1,     12.193,      5.873,     0.000,     0.000,     0.000,    -0.000,   1,1
   44,'1 ',1,   1,   1,      0.051,      0.014,     0.000,     0.000,     0.000,    -0.000,   1,1
   45,'1 ',1,   1,   1,      0.319,      0.155,     0.000,     0.000,     0.000,    -0.000,   1,1
   46,'1 ',1,   1,   1,      0.028,      0.014,     0.000,     0.000,     0.000,    -0.000,   1,1
   47,'1 ',1,   1,   1,      0.689,      0.390,     0.000,     0.000,     0.000,    -0.000,   1,1
   48,'1 ',1,   1,   1,      0.319,      0.151,     0.000,     0.000,     0.000,    -0.000,   1,1
   49,'1 ',1,   1,   1,    143.701,     67.531,     0.000,     0.000,     0.000,    -0.000,   1,1
   51,'1 ',1,   1,   1,      1.364,      0.716,     0.000,     0.000,     0.000,    -0.000,   1,1
   53,'1 ',1,   1,   1,      1.156,      0.673,     0.000,     0.000,     0.000,    -0.000,   1,1
   55,'1 ',1,   1,   1,      3.317,      1.369,     0.000,     0.000,     0.000,    -0.000,   1,1
   56,'1 ',1,   1,   1,      0.430,      0.210,     0.000,     0.000,     0.000,    -0.000,   1,1
   57,'1 ',1,   1,   1,      0.988,      0.397,     0.000,     0.000,     0.000,    -0.000,   1,1
   58,'1 ',1,   1,   1,      0.464,      0.151,     0.000,     0.000,     0.000,    -0.000,   1,1
   59,'1 ',1,   1,   1,      7.489,      4.137,     0.000,     0.000,     0.000,    -0.000,   1,1
   60,'1 ',1,   1,   1,      0.205,      0.099,     0.000,     0.000,     0.000,    -0.000,   1,1
   61,'1 ',1,   1,   1,      0.004,      0.001,     0.000,     0.000,     0.000,    -0.000,   1,1
   62,'1 ',1,   1,   1,      3.689,      1.657,     0.000,     0.000,     0.000,    -0.000,   1,1
   63,'1 ',1,   1,   1,      0.003,      0.001,     0.000,     0.000,     0.000,    -0.000,   1,1
   64,'1 ',1,   1,   1,      0.118,      0.034,     0.000,     0.000,     0.000,    -0.000,   1,1
   65,'1 ',1,   1,   1,      0.179,      0.084,     0.000,     0.000,     0.000,    -0.000,   1,1
   66,'1 ',1,   1,   1,      6.733,      3.363,     0.000,     0.000,     0.000,    -0.000,   1,1
   67,'1 ',1,   1,   1,      0.283,      0.163,     0.000,     0.000,     0.000,    -0.000,   1,1
   68,'1 ',1,   1,   1,      0.312,      0.127,     0.000,     0.000,     0.000,    -0.000,   1,1
   69,'1 ',1,   1,   1,      0.236,      0.101,     0.000,     0.000,     0.000,    -0.000,   1,1
   70,'1 ',1,   1,   1,      0.043,      0.015,     0.000,     0.000,     0.000,    -0.000,   1,1
   71,'1 ',1,   1,   1,      5.239,      2.701,     0.000,     0.000,     0.000,    -0.000,   1,1
   72,'1 ',1,   1,   1,      1.727,      0.850,     0.000,     0.000,     0.000,    -0.000,   1,1
   73,'1 ',1,   1,   1,      0.165,      0.079,     0.000,     0.000,     0.000,    -0.000,   1,1
   74,'1 ',1,   1,   1,      1.093,      0.512,     0.000,     0.000,     0.000,    -0.000,   1,1
0 / END OF LOAD DATA, BEGIN FIXED SHUNT DATA
     8,'C1', 1,     0.000,      9.927
    25,'C1', 1,     0.000,     32.610
    26,'C1', 1,     0.000,     45.437
    29,'C1', 1,     0.000,      7.594
    33,'C1', 1,     0.000,      7.679
    42,'C1', 1,     0.000,     25.287
    49,'C1', 1,     0.000,     35.925
    57,'R1', 1,     0.000,     -5.000
    58,'R1', 1,     0.000,     -5.000
    63,'R1', 1,     0.000,     -5.000
    64,'R1', 1,     0.000,     -5.000
    31,'R1', 1,     0.000,     -8.000
0 / END OF FIXED SHUNT DATA, BEGIN GENERATOR DATA
    9,'1',     54.000,      0.000,     72.000,    -48.000,1.00000,    0,    144.000,   0.00000,   1.00000,   0.00000,   0.00000,1.00000,1,  100.0,  120.000,  20.000,   1,1.0000,   0,1.0000,   0,1.0000,   0,1.0000,0, 1.0000
   41,'2',     18.000,      0.000,     24.000,    -16.000,1.00000,    0,     48.000,   0.00000,   1.00000,   0.00000,   0.00000,1.00000,1,  100.0,   40.000,   8.000,   1,1.0000,   0,1.0000,   0,1.0000,   0,1.0000,0, 1.0000
   38,'3',      8.730,      0.000,     11.640,     -7.760,1.00000,    0,     25.000,   0.00000,   1.00000,   0.00000,   0.00000,1.00000,1,  100.0,   19.400,   5.000,   1,1.0000,   0,1.0000,   0,1.0000,   0,1.0000,0, 1.0000
   55,'4',      0.855,      0.000,      1.140,     -0.760,0.98000,    0,     25.000,   0.00000,   1.00000,   0.00000,   0.00000,1.00000,1,  100.0,    1.900,   0.500,   1,1.0000,   0,1.0000,   0,1.0000,   0,1.0000,0, 1.0000
   55,'5',      7.380,      0.000,      8.118,     -8.118,0.98000,    0,     29.520,   0.00000,   1.00000,   0.00000,   0.00000,1.00000,1,  100.0,   24.600,   0.000,   1,1.0000,   0,1.0000,   0,1.0000,   0,1.0000,0, 1.0000
   21,'6',      5.400,      0.000,      5.940,     -5.940,1.00000,    0,     25.000,   0.00000,   1.00000,   0.00000,   0.00000,1.00000,1,  100.0,   18.000,   0.000,   1,1.0000,   0,1.0000,   0,1.0000,   0,1.0000,0, 1.0000
   40,'7',     13.500,      0.000,     13.500,     -8.100,0.99000,    0,     32.400,   0.00000,   1.00000,   0.00000,   0.00000,1.00000,1,  100.0,   27.000,  15.000,   1,1.0000,   0,1.0000,   0,1.0000,   0,1.0000,0, 1.0000
   40,'8',     25.000,      0.000,     25.000,    -15.000,0.99000,    0,     60.000,   0.00000,   1.00000,   0.00000,   0.00000,1.00000,1,  100.0,   50.000,  25.000,   1,1.0000,   0,1.0000,   0,1.0000,   0,1.0000,0, 1.0000
   40,'9',     18.500,      0.000,     18.500,    -11.100,0.99000,    0,     44.400,   0.00000,   1.00000,   0.00000,   0.00000,1.00000,1,  100.0,   37.000,  18.000,   1,1.0000,   0,1.0000,   0,1.0000,   0,1.0000,0, 1.0000
    7,'10',     41.000,      0.000,     41.000,    -24.600,0.98000,    0,     98.400,   0.00000,   1.00000,   0.00000,   0.00000,1.00000,1,  100.0,   82.000,  25.000,   1,1.0000,   0,1.0000,   0,1.0000,   0,1.0000,0, 1.0000
    7,'11',     41.000,      0.000,     41.000,    -24.600,0.98000,    0,     98.400,   0.00000,   1.00000,   0.00000,   0.00000,1.00000,1,  100.0,   82.000,  25.000,   1,1.0000,   0,1.0000,   0,1.0000,   0,1.0000,0, 1.0000
   25,'12',     60.000,      0.000,     60.000,    -36.000,1.00000,    0,    144.000,   0.00000,   1.00000,   0.00000,   0.00000,1.00000,1,  100.0,  120.000,  40.000,   1,1.0000,   0,1.0000,   0,1.0000,   0,1.0000,0, 1.0000
   26,'13',      0.000,      0.000,     60.500,    -36.300,1.00000,    0,    145.200,   0.00000,   1.00000,   0.00000,   0.00000,1.00000,1,  100.0,  121.000,  40.000,   1,1.0000,   0,1.0000,   0,1.0000,   0,1.0000,0, 1.0000
    1,'14',     45.000,      0.000,     45.000,    -27.000,1.00000,    0,    108.000,   0.00000,   1.00000,   0.00000,   0.00000,1.00000,1,  100.0,   90.000,  30.000,   1,1.0000,   0,1.0000,   0,1.0000,   0,1.0000,0, 1.0000
   49,'15',     28.500,      0.000,     28.500,    -17.100,0.99000,    0,     68.400,   0.00000,   1.00000,   0.00000,   0.00000,1.00000,1,  100.0,   57.000,  15.000,   1,1.0000,   0,1.0000,   0,1.0000,   0,1.0000,0, 1.0000
   49,'16',     28.500,      0.000,     28.500,    -17.100,0.99000,    0,     68.400,   0.00000,   1.00000,   0.00000,   0.00000,1.00000,1,  100.0,   57.000,  15.000,   1,1.0000,   0,1.0000,   0,1.0000,   0,1.0000,0, 1.0000
   41,'17',     28.500,      0.000,     28.500,    -17.100,1.00000,    0,     68.400,   0.00000,   1.00000,   0.00000,   0.00000,1.00000,1,  100.0,   57.000,  15.000,   1,1.0000,   0,1.0000,   0,1.0000,   0,1.0000,0, 1.0000
   51,'18',     30.000,      0.000,     24.000,    -15.000,0.98000,    0,     72.000,   0.00000,   1.00000,   0.00000,   0.00000,1.00000,1,  100.0,   60.000,  20.000,   1,1.0000,   0,1.0000,   0,1.0000,   0,1.0000,0, 1.0000
   51,'19',     30.000,      0.000,     24.000,    -15.000,0.98000,    0,     72.000,   0.00000,   1.00000,   0.00000,   0.00000,1.00000,1,  100.0,   60.000,  20.000,   1,1.0000,   0,1.0000,   0,1.0000,   0,1.0000,0, 1.0000
    7,'20',     35.000,      0.000,     28.000,    -17.500,0.98000,    0,     84.000,   0.00000,   1.00000,   0.00000,   0.00000,1.00000,1,  100.0,   70.000,  20.000,   1,1.0000,   0,1.0000,   0,1.0000,   0,1.0000,0, 1.0000
    7,'21',     35.000,      0.000,     28.000,    -17.500,0.98000,    0,     84.000,   0.00000,   1.00000,   0.00000,   0.00000,1.00000,1,  100.0,   70.000,  20.000,   1,1.0000,   0,1.0000,   0,1.0000,   0,1.0000,0, 1.0000
    8,'22',     35.000,      0.000,     28.000,    -17.500,1.00000,    0,     84.000,   0.00000,   1.00000,   0.00000,   0.00000,1.00000,1,  100.0,   70.000,  20.000,   1,1.0000,   0,1.0000,   0,1.0000,   0,1.0000,0, 1.0000
    8,'23',     22.000,      0.000,     17.600,    -11.000,1.00000,    0,     52.800,   0.00000,   1.00000,   0.00000,   0.00000,1.00000,1,  100.0,   44.000,  15.000,   1,1.0000,   0,1.0000,   0,1.0000,   0,1.0000,0, 1.0000
    8,'24',     22.000,      0.000,     17.600,    -11.000,1.00000,    0,     52.800,   0.00000,   1.00000,   0.00000,   0.00000,1.00000,1,  100.0,   44.000,  15.000,   1,1.0000,   0,1.0000,   0,1.0000,   0,1.0000,0, 1.0000
   25,'25',     25.000,      0.000,     20.000,    -12.500,1.00000,    0,     60.000,   0.00000,   1.00000,   0.00000,   0.00000,1.00000,1,  100.0,   50.000,  15.000,   1,1.0000,   0,1.0000,   0,1.0000,   0,1.0000,0, 1.0000
   49,'26',     25.000,      0.000,     20.000,    -12.500,0.99000,    0,     60.000,   0.00000,   1.00000,   0.00000,   0.00000,1.00000,1,  100.0,   50.000,  15.000,   1,1.0000,   0,1.0000,   0,1.0000,   0,1.0000,0, 1.0000
   49,'27',     25.000,      0.000,     20.000,    -12.500,0.99000,    0,     60.000,   0.00000,   1.00000,   0.00000,   0.00000,1.00000,1,  100.0,   50.000,  15.000,   1,1.0000,   0,1.0000,   0,1.0000,   0,1.0000,0, 1.0000
   49,'28',     24.000,      0.000,     19.200,    -12.000,0.99000,    0,     57.600,   0.00000,   1.00000,   0.00000,   0.00000,1.00000,1,  100.0,   48.000,  15.000,   1,1.0000,   0,1.0000,   0,1.0000,   0,1.0000,0, 1.0000
    8,'29',     25.000,      0.000,     20.000,    -12.500,1.00000,    0,     60.000,   0.00000,   1.00000,   0.00000,   0.00000,1.00000,1,  100.0,   50.000,  15.000,   1,1.0000,   0,1.0000,   0,1.0000,   0,1.0000,0, 1.0000
   66,'30',      0.000,      0.000,     13.500,    -13.500,0.98000,    0,     32.400,   0.00000,   1.00000,   0.00000,   0.00000,1.00000,1,  100.0,   27.000, -27.000,   1,1.0000,   0,1.0000,   0,1.0000,   0,1.0000,0, 1.0000
    8,'31',      0.000,      0.000,     23.250,    -23.250,1.00000,    0,     55.800,   0.00000,   1.00000,   0.00000,   0.00000,1.00000,1,  100.0,   46.500, -46.500,   1,1.0000,   0,1.0000,   0,1.0000,   0,1.0000,0, 1.0000
0 / END OF GENERATOR DATA, BEGIN BRANCH DATA
    3,    59,'1 ', 0.008619, 0.084080,0.036317,   172.50,   172.50,   172.50,  0.00000,  0.00000,  0.00000,  0.00000,1,1,   59.0,   1,1.0000,   0,1.0000,   0,1.0000,   0,1.0000
   59,    60,'1 ', 0.008619, 0.084080,0.036317,   172.50,   172.50,   172.50,  0.00000,  0.00000,  0.00000,  0.00000,1,1,   59.0,   1,1.0000,   0,1.0000,   0,1.0000,   0,1.0000
   60,    10,'1 ', 0.008619, 0.084080,0.036317,   172.50,   172.50,   172.50,  0.00000,  0.00000,  0.00000,  0.00000,1,1,   59.0,   1,1.0000,   0,1.0000,   0,1.0000,   0,1.0000
   13,     3,'1 ', 0.003701, 0.036102,0.015594,   172.50,   172.50,   172.50,  0.00000,  0.00000,  0.00000,  0.00000,1,1,   25.3,   1,1.0000,   0,1.0000,   0,1.0000,   0,1.0000
   10,    15,'1 ', 0.001239, 0.012086,0.005220,   172.50,   172.50,   172.50,  0.00000,  0.00000,  0.00000,  0.00000,1,1,   8.5,   1,1.0000,   0,1.0000,   0,1.0000,   0,1.0000
   42,    47,'1 ', 0.003872, 0.037767,0.016313,   172.50,   172.50,   172.50,  0.00000,  0.00000,  0.00000,  0.00000,1,1,   26.5,   1,1.0000,   0,1.0000,   0,1.0000,   0,1.0000
   41,    29,'1 ', 0.005749, 0.056085,0.024225,   172.50,   172.50,   172.50,  0.00000,  0.00000,  0.00000,  0.00000,1,1,   39.4,   1,1.0000,   0,1.0000,   0,1.0000,   0,1.0000
   48,    61,'1 ', 0.005425, 0.052924,0.022860,   172.50,   172.50,   172.50,  0.00000,  0.00000,  0.00000,  0.00000,1,1,   37.2,   1,1.0000,   0,1.0000,   0,1.0000,   0,1.0000
   61,    37,'1 ', 0.005425, 0.052924,0.022860,   172.50,   172.50,   172.50,  0.00000,  0.00000,  0.00000,  0.00000,1,1,   37.2,   1,1.0000,   0,1.0000,   0,1.0000,   0,1.0000
   39,    45,'1 ', 0.004215, 0.041119,0.017761,   172.50,   172.50,   172.50,  0.00000,  0.00000,  0.00000,  0.00000,1,1,   28.9,   1,1.0000,   0,1.0000,   0,1.0000,   0,1.0000
   35,    24,'1 ', 0.003360, 0.032780,0.014159,   172.50,   172.50,   172.50,  0.00000,  0.00000,  0.00000,  0.00000,1,1,   23.0,   1,1.0000,   0,1.0000,   0,1.0000,   0,1.0000
   24,    16,'1 ', 0.006933, 0.067632,0.029213,   172.50,   172.50,   172.50,  0.00000,  0.00000,  0.00000,  0.00000,1,1,   47.5,   1,1.0000,   0,1.0000,   0,1.0000,   0,1.0000
   11,     8,'1 ', 0.000580, 0.005656,0.002443,   172.50,   172.50,   172.50,  0.00000,  0.00000,  0.00000,  0.00000,1,1,   4.0,   1,1.0000,   0,1.0000,   0,1.0000,   0,1.0000
    8,     1,'1 ', 0.004619, 0.045061,0.019463,   172.50,   172.50,   172.50,  0.00000,  0.00000,  0.00000,  0.00000,1,1,   31.6,   1,1.0000,   0,1.0000,   0,1.0000,   0,1.0000
   11,    14,'1 ', 0.001502, 0.014649,0.006328,   172.50,   172.50,   172.50,  0.00000,  0.00000,  0.00000,  0.00000,1,1,   10.3,   1,1.0000,   0,1.0000,   0,1.0000,   0,1.0000
   16,    17,'1 ', 0.001472, 0.014361,0.006203,   172.50,   172.50,   172.50,  0.00000,  0.00000,  0.00000,  0.00000,1,1,   10.1,   1,1.0000,   0,1.0000,   0,1.0000,   0,1.0000
   26,    33,'1 ', 0.003075, 0.030000,0.012958,   172.50,   172.50,   172.50,  0.00000,  0.00000,  0.00000,  0.00000,1,1,   21.1,   1,1.0000,   0,1.0000,   0,1.0000,   0,1.0000
   25,    62,'1 ', 0.004817, 0.046992,0.020298,   172.50,   172.50,   172.50,  0.00000,  0.00000,  0.00000,  0.00000,1,1,   33.0,   1,1.0000,   0,1.0000,   0,1.0000,   0,1.0000
   62,    48,'1 ', 0.004817, 0.046992,0.020298,   172.50,   172.50,   172.50,  0.00000,  0.00000,  0.00000,  0.00000,1,1,   33.0,   1,1.0000,   0,1.0000,   0,1.0000,   0,1.0000
   33,    41,'1 ', 0.003322, 0.032402,0.013996,   172.50,   172.50,   172.50,  0.00000,  0.00000,  0.00000,  0.00000,1,1,   22.8,   1,1.0000,   0,1.0000,   0,1.0000,   0,1.0000
    4,     9,'1 ', 0.004161, 0.040593,0.017534,   172.50,   172.50,   172.50,  0.00000,  0.00000,  0.00000,  0.00000,1,1,   28.5,   1,1.0000,   0,1.0000,   0,1.0000,   0,1.0000
   57,    63,'1 ', 0.005376, 0.052444,0.046972,   207.00,   207.00,   207.00,  0.00000,  0.00000,  0.00000,  0.00000,1,1,   53.0,   1,1.0000,   0,1.0000,   0,1.0000,   0,1.0000
   63,    64,'1 ', 0.005376, 0.052444,0.046972,   207.00,   207.00,   207.00,  0.00000,  0.00000,  0.00000,  0.00000,1,1,   53.0,   1,1.0000,   0,1.0000,   0,1.0000,   0,1.0000
   64,    58,'1 ', 0.005376, 0.052444,0.046972,   207.00,   207.00,   207.00,  0.00000,  0.00000,  0.00000,  0.00000,1,1,   53.0,   1,1.0000,   0,1.0000,   0,1.0000,   0,1.0000
   30,    19,'1 ', 0.003626, 0.035370,0.031680,   207.00,   207.00,   207.00,  0.00000,  0.00000,  0.00000,  0.00000,1,1,   35.8,   1,1.0000,   0,1.0000,   0,1.0000,   0,1.0000
    7,    65,'1 ', 0.004256, 0.041517,0.037186,   207.00,   207.00,   207.00,  0.00000,  0.00000,  0.00000,  0.00000,1,1,   42.0,   1,1.0000,   0,1.0000,   0,1.0000,   0,1.0000
   65,    27,'1 ', 0.004256, 0.041517,0.037186,   207.00,   207.00,   207.00,  0.00000,  0.00000,  0.00000,  0.00000,1,1,   42.0,   1,1.0000,   0,1.0000,   0,1.0000,   0,1.0000
   51,    66,'1 ', 0.005669, 0.055296,0.049527,   207.00,   207.00,   207.00,  0.00000,  0.00000,  0.00000,  0.00000,1,1,   55.9,   1,1.0000,   0,1.0000,   0,1.0000,   0,1.0000
   66,    67,'1 ', 0.005669, 0.055296,0.049527,   207.00,   207.00,   207.00,  0.00000,  0.00000,  0.00000,  0.00000,1,1,   55.9,   1,1.0000,   0,1.0000,   0,1.0000,   0,1.0000
   67,    68,'1 ', 0.005669, 0.055296,0.049527,   207.00,   207.00,   207.00,  0.00000,  0.00000,  0.00000,  0.00000,1,1,   55.9,   1,1.0000,   0,1.0000,   0,1.0000,   0,1.0000
   68,    44,'1 ', 0.005669, 0.055296,0.049527,   207.00,   207.00,   207.00,  0.00000,  0.00000,  0.00000,  0.00000,1,1,   55.9,   1,1.0000,   0,1.0000,   0,1.0000,   0,1.0000
   44,    69,'1 ', 0.006763, 0.065971,0.059088,   207.00,   207.00,   207.00,  0.00000,  0.00000,  0.00000,  0.00000,1,1,   66.7,   1,1.0000,   0,1.0000,   0,1.0000,   0,1.0000
   69,    70,'1 ', 0.006763, 0.065971,0.059088,   207.00,   207.00,   207.00,  0.00000,  0.00000,  0.00000,  0.00000,1,1,   66.7,   1,1.0000,   0,1.0000,   0,1.0000,   0,1.0000
   70,    71,'1 ', 0.006763, 0.065971,0.059088,   207.00,   207.00,   207.00,  0.00000,  0.00000,  0.00000,  0.00000,1,1,   66.7,   1,1.0000,   0,1.0000,   0,1.0000,   0,1.0000
   71,    19,'1 ', 0.006763, 0.065971,0.059088,   207.00,   207.00,   207.00,  0.00000,  0.00000,  0.00000,  0.00000,1,1,   66.7,   1,1.0000,   0,1.0000,   0,1.0000,   0,1.0000
   55,    72,'1 ', 0.004090, 0.039898,0.035735,   207.00,   207.00,   207.00,  0.00000,  0.00000,  0.00000,  0.00000,1,1,   40.3,   1,1.0000,   0,1.0000,   0,1.0000,   0,1.0000
   72,    53,'1 ', 0.004090, 0.039898,0.035735,   207.00,   207.00,   207.00,  0.00000,  0.00000,  0.00000,  0.00000,1,1,   40.3,   1,1.0000,   0,1.0000,   0,1.0000,   0,1.0000
    6,    21,'1 ', 0.002226, 0.021717,0.150087,   345.00,   345.00,   345.00,  0.00000,  0.00000,  0.00000,  0.00000,1,1,   61.0,   1,1.0000,   0,1.0000,   0,1.0000,   0,1.0000
   22,    23,'1 ', 0.000176, 0.001712,0.011834,   345.00,   345.00,   345.00,  0.00000,  0.00000,  0.00000,  0.00000,1,1,   4.8,   1,1.0000,   0,1.0000,   0,1.0000,   0,1.0000
    5,    20,'1 ', 0.002261, 0.022056,0.152426,   345.00,   345.00,   345.00,  0.00000,  0.00000,  0.00000,  0.00000,1,1,   61.9,   1,1.0000,   0,1.0000,   0,1.0000,   0,1.0000
   22,    20,'1 ', 0.000157, 0.001533,0.010592,   345.00,   345.00,   345.00,  0.00000,  0.00000,  0.00000,  0.00000,1,1,   4.3,   1,1.0000,   0,1.0000,   0,1.0000,   0,1.0000
   32,    21,'1 ', 0.000747, 0.007288,0.050366,   345.00,   345.00,   345.00,  0.00000,  0.00000,  0.00000,  0.00000,1,1,   20.5,   1,1.0000,   0,1.0000,   0,1.0000,   0,1.0000
   28,    32,'1 ', 0.000554, 0.005401,0.037330,   345.00,   345.00,   345.00,  0.00000,  0.00000,  0.00000,  0.00000,1,1,   15.2,   1,1.0000,   0,1.0000,   0,1.0000,   0,1.0000
   23,    31,'1 ', 0.001065, 0.010387,0.071785,   345.00,   345.00,   345.00,  0.00000,  0.00000,  0.00000,  0.00000,1,1,   29.2,   1,1.0000,   0,1.0000,   0,1.0000,   0,1.0000
   18,    73,'1 ', 0.014297, 0.139469,0.007807,   103.50,   103.50,   103.50,  0.00000,  0.00000,  0.00000,  0.00000,1,1,   35.3,   1,1.0000,   0,1.0000,   0,1.0000,   0,1.0000
   73,    34,'1 ', 0.014297, 0.139469,0.007807,   103.50,   103.50,   103.50,  0.00000,  0.00000,  0.00000,  0.00000,1,1,   35.3,   1,1.0000,   0,1.0000,   0,1.0000,   0,1.0000
   36,    38,'1 ', 0.003986, 0.038886,0.002177,   103.50,   103.50,   103.50,  0.00000,  0.00000,  0.00000,  0.00000,1,1,   9.8,   1,1.0000,   0,1.0000,   0,1.0000,   0,1.0000
    2,    12,'1 ', 0.013836, 0.134966,0.007555,   103.50,   103.50,   103.50,  0.00000,  0.00000,  0.00000,  0.00000,1,1,   34.1,   1,1.0000,   0,1.0000,   0,1.0000,   0,1.0000
   46,    43,'1 ', 0.011969, 0.116761,0.006536,   103.50,   103.50,   103.50,  0.00000,  0.00000,  0.00000,  0.00000,1,1,   29.5,   1,1.0000,   0,1.0000,   0,1.0000,   0,1.0000
   52,    50,'1 ', 0.010110, 0.098625,0.005521,   103.50,   103.50,   103.50,  0.00000,  0.00000,  0.00000,  0.00000,1,1,   24.9,   1,1.0000,   0,1.0000,   0,1.0000,   0,1.0000
   56,    54,'1 ', 0.003559, 0.034716,0.001943,   103.50,   103.50,   103.50,  0.00000,  0.00000,  0.00000,  0.00000,1,1,   8.8,   1,1.0000,   0,1.0000,   0,1.0000,   0,1.0000
   49,    74,'1 ', 0.002643, 0.025785,0.204318,   357.00,   357.00,   357.00,  0.00000,  0.00000,  0.00000,  0.00000,1,1,   77.5,   1,1.0000,   0,1.0000,   0,1.0000,   0,1.0000
   74,    40,'1 ', 0.002643, 0.025785,0.204318,   357.00,   357.00,   357.00,  0.00000,  0.00000,  0.00000,  0.00000,1,1,   77.5,   1,1.0000,   0,1.0000,   0,1.0000,   0,1.0000
   11,    26,'2 ', 0.013745, 0.134085,0.057916,   172.50,   172.50,   172.50,  0.00000,  0.00000,  0.00000,  0.00000,1,1,   94.1,   1,1.0000,   0,1.0000,   0,1.0000,   0,1.0000
   13,    26,'2 ', 0.014983, 0.146157,0.063131,   172.50,   172.50,   172.50,  0.00000,  0.00000,  0.00000,  0.00000,1,1,   102.6,   1,1.0000,   0,1.0000,   0,1.0000,   0,1.0000
    4,    26,'2 ', 0.024706, 0.241003,0.104098,   172.50,   172.50,   172.50,  0.00000,  0.00000,  0.00000,  0.00000,1,1,   169.2,   1,1.0000,   0,1.0000,   0,1.0000,   0,1.0000
   35,    26,'2 ', 0.011710, 0.114225,0.049338,   172.50,   172.50,   172.50,  0.00000,  0.00000,  0.00000,  0.00000,1,1,   80.2,   1,1.0000,   0,1.0000,   0,1.0000,   0,1.0000
   25,    26,'2 ', 0.000100, 0.001000,0.000188,   172.50,   172.50,   172.50,  0.00000,  0.00000,  0.00000,  0.00000,1,1,   0.3,   1,1.0000,   0,1.0000,   0,1.0000,   0,1.0000
   39,    26,'2 ', 0.010609, 0.103491,0.044701,   172.50,   172.50,   172.50,  0.00000,  0.00000,  0.00000,  0.00000,1,1,   72.7,   1,1.0000,   0,1.0000,   0,1.0000,   0,1.0000
   42,    41,'2 ', 0.001288, 0.012563,0.005426,   172.50,   172.50,   172.50,  0.00000,  0.00000,  0.00000,  0.00000,1,1,   8.8,   1,1.0000,   0,1.0000,   0,1.0000,   0,1.0000
   57,    30,'2 ', 0.019746, 0.192616,0.172520,   207.00,   207.00,   207.00,  0.00000,  0.00000,  0.00000,  0.00000,1,1,   194.8,   1,1.0000,   0,1.0000,   0,1.0000,   0,1.0000
0 / END OF BRANCH DATA, BEGIN TRANSFORMER DATA
   13,   12,    0,'1 ',1,1,1,  0.00000,  0.00000,2,'        ',1,   1,1.0000,   0,1.0000,   0,1.0000,   0,1.0000
 0.00250, 0.05000, 200.00
1.00000,  115.000,   0.000,   200.00,   200.00,   200.00,0,     0, 1.10000, 0.90000, 1.10000, 0.90000, 33, 0, 0.00000, 0.00000
1.00000,  69.000
   28,   27,    0,'1 ',1,1,1,  0.00000,  0.00000,2,'        ',1,   1,1.0000,   0,1.0000,   0,1.0000,   0,1.0000
 0.00250, 0.05000, 200.00
1.00000,  230.000,   0.000,   200.00,   200.00,   200.00,0,     0, 1.10000, 0.90000, 1.10000, 0.90000, 33, 0, 0.00000, 0.00000
1.00000,  138.000
   27,   26,    0,'1 ',1,1,1,  0.00000,  0.00000,2,'        ',1,   1,1.0000,   0,1.0000,   0,1.0000,   0,1.0000
 0.00250, 0.05000, 200.00
1.00000,  138.000,   0.000,   200.00,   200.00,   200.00,0,     0, 1.10000, 0.90000, 1.10000, 0.90000, 33, 0, 0.00000, 0.00000
1.00000,  115.000
   31,   30,    0,'1 ',1,1,1,  0.00000,  0.00000,2,'        ',1,   1,1.0000,   0,1.0000,   0,1.0000,   0,1.0000
 0.00250, 0.05000, 200.00
1.00000,  230.000,   0.000,   200.00,   200.00,   200.00,0,     0, 1.10000, 0.90000, 1.10000, 0.90000, 33, 0, 0.00000, 0.00000
1.00000,  138.000
   30,   29,    0,'1 ',1,1,1,  0.00000,  0.00000,2,'        ',1,   1,1.0000,   0,1.0000,   0,1.0000,   0,1.0000
 0.00250, 0.05000, 200.00
1.00000,  138.000,   0.000,   200.00,   200.00,   200.00,0,     0, 1.10000, 0.90000, 1.10000, 0.90000, 33, 0, 0.00000, 0.00000
1.00000,  115.000
   35,   34,    0,'1 ',1,1,1,  0.00000,  0.00000,2,'        ',1,   1,1.0000,   0,1.0000,   0,1.0000,   0,1.0000
 0.00250, 0.05000, 200.00
1.00000,  115.000,   0.000,   200.00,   200.00,   200.00,0,     0, 1.10000, 0.90000, 1.10000, 0.90000, 33, 0, 0.00000, 0.00000
1.00000,  69.000
   51,   50,    0,'1 ',1,1,1,  0.00000,  0.00000,2,'        ',1,   1,1.0000,   0,1.0000,   0,1.0000,   0,1.0000
 0.00250, 0.05000, 200.00
1.00000,  138.000,   0.000,   200.00,   200.00,   200.00,0,     0, 1.10000, 0.90000, 1.10000, 0.90000, 33, 0, 0.00000, 0.00000
1.00000,  69.000
   53,   52,    0,'1 ',1,1,1,  0.00000,  0.00000,2,'        ',1,   1,1.0000,   0,1.0000,   0,1.0000,   0,1.0000
 0.00250, 0.05000, 200.00
1.00000,  138.000,   0.000,   200.00,   200.00,   200.00,0,     0, 1.10000, 0.90000, 1.10000, 0.90000, 33, 0, 0.00000, 0.00000
1.00000,  69.000
   55,   54,    0,'1 ',1,1,1,  0.00000,  0.00000,2,'        ',1,   1,1.0000,   0,1.0000,   0,1.0000,   0,1.0000
 0.00250, 0.05000, 200.00
1.00000,  138.000,   0.000,   200.00,   200.00,   200.00,0,     0, 1.10000, 0.90000, 1.10000, 0.90000, 33, 0, 0.00000, 0.00000
1.00000,  69.000
   26,   36,    0,'1 ',1,1,1,  0.00000,  0.00000,2,'        ',1,   1,1.0000,   0,1.0000,   0,1.0000,   0,1.0000
 0.00500, 0.10000, 100.00
1.00000,  115.000,   0.000,   100.00,   100.00,   100.00,0,     0, 1.10000, 0.90000, 1.10000, 0.90000, 33, 0, 0.00000, 0.00000
1.00000,  69.000
   49,   66,    0,'1 ',1,1,1,  0.00000,  0.00000,2,'        ',1,   1,1.0000,   0,1.0000,   0,1.0000,   0,1.0000
 0.00500, 0.10000, 100.00
1.00000,  238.000,   0.000,   100.00,   100.00,   100.00,0,     0, 1.10000, 0.90000, 1.10000, 0.90000, 33, 0, 0.00000, 0.00000
1.00000,  138.000
   26,   46,    0,'1 ',1,1,1,  0.00000,  0.00000,2,'        ',1,   1,1.0000,   0,1.0000,   0,1.0000,   0,1.0000
 0.00500, 0.10000, 100.00
1.00000,  115.000,   0.000,   100.00,   100.00,   100.00,0,     0, 1.10000, 0.90000, 1.10000, 0.90000, 33, 0, 0.00000, 0.00000
1.00000,  69.000
0 / END OF TRANSFORMER DATA, BEGIN AREA DATA
   1,   26,     0.000,   999.990,'RAILBELT    '
0 / END OF AREA DATA, BEGIN TWO-TERMINAL DC DATA
0 / END OF TWO-TERMINAL DC DATA, BEGIN VOLTAGE SOURCE CONVERTER DATA
0 / END OF VOLTAGE SOURCE CONVERTER DATA, BEGIN IMPEDANCE CORRECTION DATA
0 / END OF IMPEDANCE CORRECTION DATA, BEGIN MULTI-TERMINAL DC DATA
0 / END OF MULTI-TERMINAL DC DATA, BEGIN MULTI-SECTION LINE DATA
0 / END OF MULTI-SECTION LINE DATA, BEGIN ZONE DATA
   1,'RAILBELT'
0 / END OF ZONE DATA, BEGIN INTER-AREA TRANSFER DATA
0 / END OF INTER-AREA TRANSFER DATA, BEGIN OWNER DATA
    1,'1'
0 / END OF OWNER DATA, BEGIN FACTS CONTROL DEVICE DATA
0 / END OF FACTS CONTROL DEVICE DATA, BEGIN SWITCHED SHUNT DATA
0 /END OF SWITCHED SHUNT DATA, BEGIN GNE DEVICE DATA
0 /END OF GNE DEVICE DATA
Q